LTspice 24.0.12 for Windows
Circuit: * C:\Projetos\elias_balanca\Hardware\charge_amplifier.asc
Start Time: Sat Jun  1 13:48:19 2024
solver = Normal
Maximum thread count: 12
tnom = 27
temp = 27
method = modified trap
Direct Newton iteration failed to find .op point.  (Use ".option noopiter" to skip.)
Starting Gmin stepping
Gmin = 10
Gmin = 1.07374
Gmin = 0.115292
Gmin = 0.0123794
Gmin = 0.00132923
vernier = 0.5
vernier = 0.25
vernier = 0.125
Gmin = 0.000659942
vernier = 0.0625
vernier = 0.03125
vernier = 0.0416667
Gmin = 0.000637877
vernier = 0.0208333
vernier = 0.0104167
vernier = 0.0138889
Gmin = 0.000631799
vernier = 0.0185185
Gmin = 0.000606069
vernier = 0.0246913
vernier = 0.0329218
Gmin = 0.000565258
vernier = 0.0438957
vernier = 0.0585276
Gmin = 0.000505907
vernier = 0.0292638
vernier = 0.0146319
Gmin = 0.000479058
vernier = 0.0195092
vernier = 0.0260122
Gmin = 0.00045594
vernier = 0.034683
Gmin = 0.000421843
vernier = 0.046244
vernier = 0.0616586
Gmin = 0.000370361
vernier = 0.0822114
vernier = 0.109615
Gmin = 0.000301192
vernier = 0.146154
Gmin = 0.000217954
vernier = 0.194871
vernier = 0.259828
Gmin = 0.000127375
vernier = 0.346438
vernier = 0.461917
Gmin = 5.48349e-05
vernier = 0.615889
vernier = 0.307945
Gmin = 1.99724e-05
vernier = 0.153972
vernier = 0.0769862
vernier = 0.0384931
vernier = 0.0192465
vernier = 0.00962327
vernier = 0.00481163
vernier = 0.00240582
vernier = 0.00120291
vernier = 0.000601454
vernier = 0.000451091
Gmin = 1.99724e-05
Gmin = 0
Gmin stepping failed

Starting source stepping with srcstepmethod=0
Source Step = 3.0303%
vernier = 0.25
Source Step = 0.378788%
Source Step = 0.852273%
Source Step = 1.32576%
Source Step = 1.79924%
Source Step = 2.27273%
vernier = 0.0234375
Source Step = 2.91193%
Source Step = 3.62216%
Source Step = 4.33239%
Source Step = 5.04261%
Source Step = 5.75284%
vernier = 0.0351562
Source Step = 6.67614%
Source Step = 7.74148%
Source Step = 8.80682%
Source Step = 9.87216%
Source Step = 10.9375%
vernier = 0.0527344
Source Step = 12.2692%
Source Step = 13.8672%
Source Step = 15.4652%
Source Step = 17.0632%
Source Step = 18.6612%
vernier = 0.0791016
Source Step = 20.5788%
Source Step = 22.9759%
Source Step = 25.3729%
Source Step = 27.7699%
Source Step = 30.1669%
vernier = 0.118652
Source Step = 32.9235%
Source Step = 32.9628%
Starting source stepping with srcstepmethod=1
Source Step = 3.0303%
Source Step = 33.3333%
Source Step = 63.6364%
Source stepping failed

Pseudo Transient succeeded in finding the operating point at 599.064 ms.
Total elapsed time: 2.214 seconds.

