LTspice 24.0.12 for Windows
Circuit: * C:\Projetos\elias_balanca\Hardware\Draft1.asc
Start Time: Wed Jul  3 15:27:54 2024
solver = Normal
Maximum thread count: 12
tnom = 27
temp = 27
method = modified trap
.OP point found by inspection.
Total elapsed time: 0.040 seconds.

